LTspice 24.0.12 for Windows
Circuit: * \\wsl$\Ubuntu\home\minstrel\kinetika\project_demetra\power_electronics\equivalent_circuit\resonant_H_bridge.asc
Start Time: Mon Dec  1 23:09:23 2025
Number of points per octave reduced from 10000 to 8241.
solver = Normal
Maximum thread count: 20
tnom = 27
temp = 27
method = modified trap
.OP point found by inspection.
Total elapsed time: 0.634 seconds.

